.MODEL NEW_SECRET_DIOD D (IS=5.721f N=1 RS=24
+ CJO=207.2p VJ=1.971 M=0.5 EG=1.11 XTI=3 IBV=18m)
;$SpiceType=AMBIGUOUS
